98

Ru         4.71160        2.91540        3.50460
Ru         5.30520        0.53320        3.52150
C          5.43290        4.97810        3.25030
C          4.79720        4.84540        4.51100
C          3.43080        4.45110        4.35780
C          3.19550        4.34240        2.91310
C          4.44100        4.69240        2.28040
C          6.85940        5.43870        2.99170
C          7.42130        4.76940        1.73920
H          8.33730        5.08180        1.58530
H          6.86410        5.00070        0.96680
H          7.42380        3.79770        1.86090
C          7.76370        5.10570        4.17240
H          8.67900        5.39470        3.97370
H          7.75390        4.13810        4.32910
H          7.44060        5.56940        4.97270
C          6.84860        6.94990        2.78020
H          7.76570        7.26760        2.64870
H          6.46080        7.38790        3.56650
H          6.31260        7.16450        1.98820
C          2.49570        4.33930        5.58600
C          1.30930        5.31190        5.41900
H          1.64840        6.22160        5.28190
H          0.75290        5.29020        6.22640
H          0.77200        5.04300        4.64390
C          3.24900        4.78390        6.84900
H          3.59300        5.69200        6.72170
H          3.99570        4.17220        7.01550
H          2.63840        4.76950        7.61580
C          2.00290        2.91460        5.85700
H          1.53860        2.57190        5.06500
H          1.38570        2.92070        6.61810
H          2.76760        2.33750        6.06130
C          1.95400        4.08310        2.03970
C          1.27740        5.44080        1.76440
H          1.91190        6.03680        1.31380
H          0.99530        5.84410        2.61230
H          0.49370        5.30600        1.19070
C          0.94030        3.09710        2.62350
H          0.21780        2.95080        1.97840
H          0.56810        3.46390        3.45320
H          1.38560        2.24560        2.81520
C          2.37480        3.50190        0.67720
H          2.89870        4.16820        0.18610
H          1.57600        3.26900        0.16090
H          2.91850        2.69910        0.81990
C          6.91300       -0.97310        3.39780
C          5.97760       -1.18330        2.36420
C          4.67270       -1.44990        2.90020
C          4.80740       -1.39730        4.35930
C          6.19720       -1.11990        4.61310
C          8.40750       -0.71760        3.23350
C          8.69750        0.01980        1.92390
H          9.65820        0.19650        1.85390
H          8.20750        0.86820        1.91130
H          8.41150       -0.53390        1.16690
C          9.11230       -2.08630        3.21110
H         10.07650       -1.95520        3.09780
H          8.76590       -2.61910        2.46680
H          8.94250       -2.55380        4.05480
C          8.95710        0.11600        4.39200
H          9.91140        0.29000        4.24510
H          8.84020       -0.37400        5.23150
H          8.47420        0.96680        4.43960
C          3.48840       -1.78830        1.95800
C          4.00860       -1.93640        0.51810
H          3.26480       -2.17310       -0.07420
H          4.68880       -2.64110        0.48690
H          4.40250       -1.08840        0.22390
C          2.42110       -0.67900        1.90710
H          2.09050       -0.50010        2.81240
H          1.67580       -0.96870        1.33900
H          2.81550        0.13830        1.53630
C          2.82970       -3.12230        2.32540
H          2.38010       -3.03770        3.19150
H          3.51400       -3.82130        2.37860
H          2.17210       -3.36190        1.63840
C          3.85750       -1.70440        5.52780
C          3.85780       -3.22530        5.77860
H          4.77110       -3.52540        5.96890
H          3.52250       -3.68760        4.98110
H          3.28020       -3.43040        6.54260
C          2.41860       -1.19740        5.32250
H          2.43600       -0.23980        5.11400
H          1.90150       -1.34320        6.14240
H          2.00300       -1.68550        4.58230
C          4.37190       -1.02630        6.81630
H          4.48850       -0.06600        6.65590
H          5.23110       -1.42050        7.07290
H          3.72250       -1.16010        7.53740
H          6.29620        1.99480        3.31610
H          4.90390        1.71930        2.21070
H          3.82460        1.49490        3.63790
H          5.13920        1.78540        4.78520
H          5.23650        4.94850        5.33090
H          4.58780        4.69680        1.31520
H          6.20530       -1.12180        1.45520
H          6.52760       -1.02420        5.44280
